/*--------------------------------*- C++ -*----------------------------------*\
| =========                 |                                                 |
| \\      /  F ield         | OpenFOAM: The Open Source CFD Toolbox           |
|  \\    /   O peration     | Version:  v2012                                 |
|   \\  /    A nd           | Website:  www.openfoam.com                      |
|    \\/     M anipulation  |                                                 |
\*---------------------------------------------------------------------------*/
FoamFile
{
    version     2.0;
    format      ascii;
    class       volScalarField;
    location    "0";
    object      p_rgh;
}
// * * * * * * * * * * * * * * * * * * * * * * * * * * * * * * * * * * * * * //

dimensions      [1 -1 -2 0 0 0 0];

internalField   uniform 100000;

boundaryField
{
    tube_to_solid
    {
        type            fixedFluxPressure;
    }
    tube_external
    {
        type            fixedFluxPressure;
    }
    solid_external
    {
        type            fixedFluxPressure;
    }
    tube_inlet
    {
        type            fixedFluxPressure;
    }
    tube_outlet
    {
        type            fixedValue;
        value           $internalField;
    }
}


// ************************************************************************* //
