/*--------------------------------*- C++ -*----------------------------------*\
| =========                 |                                                 |
| \\      /  F ield         | OpenFOAM: The Open Source CFD Toolbox           |
|  \\    /   O peration     | Version:  v2012                                 |
|   \\  /    A nd           | Website:  www.openfoam.com                      |
|    \\/     M anipulation  |                                                 |
\*---------------------------------------------------------------------------*/
FoamFile
{
    version     2.0;
    format      ascii;
    class       volScalarField;
    location    "0";
    object      T;
}
// * * * * * * * * * * * * * * * * * * * * * * * * * * * * * * * * * * * * * //

dimensions      [0 0 0 1 0 0 0];

internalField   uniform 350;

boundaryField
{
    tube_to_solid
    {
            type            compressible::turbulentTemperatureCoupledBaffleMixed;
            Tnbr            T;
            kappaMethod     fluidThermo;
            value           uniform 350;
    }
    tube_external
    {
        type            zeroGradient;
    }
    solid_external
    {
        type            zeroGradient;
    }
    tube_inlet
    {
        type            fixedValue;
        value           uniform 350;
    }
    tube_outlet
    {
        type            inletOutlet;
        inletValue      uniform 350;
        value           uniform 350;
    }
}


// ************************************************************************* //
